web: java -Dserver.port=$PORT -jar target/drools-dynamic-1.0-SNAPSHOT-exec.jar
